/*--------------------------------*- C++ -*----------------------------------*\
| =========                 |                                                 |
| \\      /  F ield         | OpenFOAM: The Open Source CFD Toolbox           |
|  \\    /   O peration     | Version:  4.1                                   |
|   \\  /    A nd           | Web:      www.OpenFOAM.org                      |
|    \\/     M anipulation  |                                                 |
\*---------------------------------------------------------------------------*/
FoamFile
{
    version     2.0;
    format      ascii;
    class       polyBoundaryMesh;
    location    "constant/polyMesh";
    object      boundary;
}
// * * * * * * * * * * * * * * * * * * * * * * * * * * * * * * * * * * * * * //

6
(
    inlet
    {
        type            wall;
        inGroups        1(wall);
        nFaces          105;
        startFace       64415;
    }
    outlet
    {
        type            wall;
        inGroups        1(wall);
        nFaces          105;
        startFace       64520;
    }
    wing
    {
        type            wall;
        inGroups        1(wall);
        nFaces          200;
        startFace       64625;
    }
    topAndBottom
    {
        type            wall;
        inGroups        1(wall);
        nFaces          360;
        startFace       64825;
    }
    symFront
    {
        type            empty;
        inGroups        1(empty);
        nFaces          32400;
        startFace       65185;
    }
    symBack
    {
        type            empty;
        inGroups        1(empty);
        nFaces          32400;
        startFace       97585;
    }
)

// ************************************************************************* //
