/*--------------------------------*- C++ -*----------------------------------*\
  =========                 |
  \\      /  F ield         | OpenFOAM: The Open Source CFD Toolbox
   \\    /   O peration     | Website:  https://openfoam.org
    \\  /    A nd           | Version:  7
     \\/     M anipulation  |
\*---------------------------------------------------------------------------*/
FoamFile
{
    version     2.0;
    format      ascii;
    class       polyBoundaryMesh;
    location    "constant/polyMesh";
    object      boundary;
}
// * * * * * * * * * * * * * * * * * * * * * * * * * * * * * * * * * * * * * //

6
(
    inlet
    {
        type            wall;
        inGroups        List<word> 1(wall);
        nFaces          105;
        startFace       64415;
    }
    outlet
    {
        type            wall;
        inGroups        List<word> 1(wall);
        nFaces          105;
        startFace       64520;
    }
    cylinder
    {
        type            wall;
        inGroups        List<word> 1(wall);
        nFaces          200;
        startFace       64625;
    }
    topAndBottom
    {
        type            wall;
        inGroups        List<word> 1(wall);
        nFaces          360;
        startFace       64825;
    }
    symFront
    {
        type            empty;
        inGroups        List<word> 1(empty);
        nFaces          32400;
        startFace       65185;
    }
    symBack
    {
        type            empty;
        inGroups        List<word> 1(empty);
        nFaces          32400;
        startFace       97585;
    }
)

// ************************************************************************* //
